Circuit: * C:\Users\eduar\OneDrive\Documentos\LTspiceXVII\International\International_v1.asc

Limiting fall time of source v1 to 0.001
Direct Newton iteration for .op point succeeded.

Date: Tue Apr 21 16:22:30 2026
Total elapsed time: 0.347 seconds.

tnom = 27
temp = 27
method = modified trap
totiter = 5388
traniter = 5366
tranpoints = 2424
accept = 2152
rejected = 272
matrix size = 36
fillins = 0
solver = Normal
Matrix Compiler1: 1.55 KB object code size  0.6/0.4/[0.2]
Matrix Compiler2: 2.76 KB object code size  1.1/0.6/[0.6]

